Version 4
SHEET 1 880 680
WIRE 64 256 -64 256
WIRE 272 256 128 256
WIRE -64 400 -64 256
FLAG 272 256 out
IOPIN 272 256 Out
FLAG -64 480 0
SYMBOL voltage -64 384 R0
SYMATTR InstName V1
SYMATTR Value SINE(0 1 1)
SYMBOL inv 80 288 R0
SYMATTR InstName U2
TEXT 136 376 Left 2 !.tran 2s
