Version 4
SHEET 1 880 680
SYMBOL TBUFF -144 112 R0
SYMATTR InstName U1
SYMBOL TNOT 64 112 R0
SYMATTR InstName U2
SYMBOL TAND 256 112 R0
SYMATTR InstName U3
SYMBOL TOR 448 112 R0
SYMATTR InstName U4
SYMBOL TNAND 624 112 R0
SYMATTR InstName U5
SYMBOL TNOR 800 112 R0
SYMATTR InstName U6
SYMBOL TXOR -144 272 R0
SYMATTR InstName U7
SYMBOL BFTA 64 272 R0
SYMATTR InstName U8
