Version 4
SHEET 1 880 680
WIRE 496 128 496 96
WIRE 640 208 496 208
WIRE 640 304 640 208
WIRE 496 448 496 288
FLAG 640 304 0
FLAG 496 96 vcc
FLAG 496 448 vee
FLAG -208 416 0
FLAG -208 336 In
FLAG 64 160 vcc
FLAG 64 256 vee
FLAG 16 208 In
FLAG 176 208 Out
IOPIN 176 208 Out
SYMBOL voltage 496 112 R0
SYMATTR InstName V1
SYMATTR Value 1
SYMBOL voltage 496 192 R0
SYMATTR InstName V2
SYMATTR Value 1
SYMBOL voltage -208 320 R0
SYMATTR InstName V3
SYMATTR Value 1
SYMBOL TNOT 80 208 R0
SYMATTR InstName U1
TEXT 624 464 Left 2 !.tran 1s
