Version 4
SHEET 1 1456 680
WIRE -336 -336 -352 -336
WIRE -288 -336 -336 -336
WIRE -16 -288 -80 -288
WIRE 608 -288 608 -304
WIRE 704 -288 608 -288
WIRE 608 -256 608 -288
WIRE 608 -240 608 -256
WIRE 256 -208 240 -208
WIRE 304 -208 256 -208
WIRE -240 -112 -304 -112
WIRE 48 -64 -16 -64
WIRE 512 16 512 -32
WIRE 608 16 608 -32
WIRE 608 16 512 16
WIRE 656 16 608 16
WIRE 704 16 704 -288
WIRE 704 16 656 16
WIRE 656 48 656 16
FLAG 656 48 0
FLAG 608 -384 vcc
FLAG 608 -112 a
FLAG 512 -112 b
FLAG 608 -176 vee
FLAG 160 -224 a
FLAG 160 -192 b
FLAG 192 -256 vcc
FLAG 192 -160 vee
FLAG 304 -208 out
IOPIN 304 -208 Out
FLAG -96 -80 a
FLAG -96 -48 b
FLAG -64 -112 vcc
FLAG -64 -16 vee
FLAG 48 -64 out2
IOPIN 48 -64 Out
FLAG -160 -304 a
FLAG -160 -272 b
FLAG -144 -336 vcc
FLAG -144 -240 vee
FLAG -16 -288 out3
IOPIN -16 -288 Out
FLAG -368 -128 a
FLAG -368 -96 b
FLAG -352 -160 vcc
FLAG -352 -64 vee
FLAG -240 -112 out4
IOPIN -240 -112 Out
FLAG -416 -352 a
FLAG -416 -320 b
FLAG -384 -384 vcc
FLAG -384 -288 vee
FLAG -288 -336 out5
IOPIN -288 -336 Out
SYMBOL voltage 608 -400 R0
SYMATTR InstName V1
SYMATTR Value 1
SYMBOL voltage 608 -272 R0
SYMATTR InstName V2
SYMATTR Value 1
SYMBOL voltage 608 -128 R0
SYMATTR InstName V3
SYMATTR Value 1
SYMBOL voltage 512 -128 R0
SYMATTR InstName V4
SYMATTR Value 1
SYMBOL TNAND 208 -208 R0
WINDOW 3 24 28 Top 2
SYMATTR InstName U1
SYMBOL TAND -48 -64 R0
SYMATTR InstName U3
SYMBOL TNOR -128 -288 R0
SYMATTR InstName U5
SYMBOL TOR -336 -112 R0
SYMATTR InstName U2
SYMBOL TXOR -368 -336 R0
SYMATTR InstName U4
SYMATTR Value TOR
TEXT 544 88 Left 2 !.tran 10m
