Version 4
SHEET 1 1456 680
WIRE -944 -432 -1008 -432
WIRE -304 -336 -320 -336
WIRE -256 -336 -304 -336
WIRE 608 -288 608 -304
WIRE 704 -288 608 -288
WIRE 608 -256 608 -288
WIRE 608 -240 608 -256
WIRE -992 -112 -1008 -112
WIRE -944 -112 -992 -112
WIRE -240 -112 -304 -112
WIRE 512 16 512 -32
WIRE 608 16 608 -32
WIRE 608 16 512 16
WIRE 656 16 608 16
WIRE 704 16 704 -288
WIRE 704 16 656 16
WIRE 656 48 656 16
WIRE -240 128 -304 128
FLAG 656 48 0
FLAG 608 -384 vcc
FLAG 608 -112 a
FLAG 512 -112 b
FLAG 608 -176 vee
FLAG -1088 -128 a
FLAG -1088 -96 b
FLAG -1056 -160 vcc
FLAG -1056 -64 vee
FLAG -944 -112 out
IOPIN -944 -112 Out
FLAG -384 112 a
FLAG -384 144 b
FLAG -352 80 vcc
FLAG -352 176 vee
FLAG -240 128 out2
IOPIN -240 128 Out
FLAG -1088 -448 a
FLAG -1088 -416 b
FLAG -1072 -480 vcc
FLAG -1072 -384 vee
FLAG -944 -432 out3
IOPIN -944 -432 Out
FLAG -368 -128 a
FLAG -368 -96 b
FLAG -352 -160 vcc
FLAG -352 -64 vee
FLAG -240 -112 out4
IOPIN -240 -112 Out
FLAG -384 -352 a
FLAG -384 -320 b
FLAG -352 -384 vcc
FLAG -352 -288 vee
FLAG -256 -336 out5
IOPIN -256 -336 Out
SYMBOL voltage 608 -400 R0
SYMATTR InstName V1
SYMATTR Value 1
SYMBOL voltage 608 -272 R0
SYMATTR InstName V2
SYMATTR Value 1
SYMBOL voltage 608 -128 R0
SYMATTR InstName V3
SYMATTR Value 1
SYMBOL voltage 512 -128 R0
SYMATTR InstName V4
SYMATTR Value 1
SYMBOL TNAND -1040 -112 R0
WINDOW 3 24 28 Top 2
SYMATTR InstName U1
SYMBOL TAND -336 128 R0
SYMATTR InstName U3
SYMBOL TNOR -1056 -432 R0
SYMATTR InstName U5
SYMBOL TOR -336 -112 R0
SYMATTR InstName U2
SYMBOL TXOR -336 -336 R0
SYMATTR InstName U4
SYMATTR Value TOR
TEXT 544 88 Left 2 !.tran 10m
TEXT -128 48 Left 2 ;a       b       and(a,b)\n-1       -1      -1\n-1       0       0\n-1       1       0\n0        -1      0\n0        0       0\n0        1       0\n1        -1      0\n1        0       0\n1        1       1
TEXT -128 -224 Left 2 ;a       b       TOR(a,b)\n-1       -1      -1\n-1       0       -1\n-1       1       1\n0        -1      -1\n0        0       0\n0        1       1\n1        -1      1\n1        0       1\n1        1       1
TEXT -120 -512 Left 2 ;a       b       txor(a,b)\n-1       -1      1\n-1       0       -1\n-1       1       0\n0        -1      -1\n0        0       0\n0        1       1\n1        -1      0\n1        0       1\n1        1       -1
